<?xml version="1.0" encoding="UTF-8"?>

<!-- generated on 2025-08-13 13:36:44 by Eclipse SUMO netedit Version 1.24.0
<neteditConfiguration xmlns:xsi="http://www.w3.org/2001/XMLSchema-instance" xsi:noNamespaceSchemaLocation="http://sumo.dlr.de/xsd/neteditConfiguration.xsd">

    <input>
        <sumo-net-file value="D:\GIAHAN\CN2304CLCA\Giao_Thong_Thong_Minh\HELLOSUMO\2.1phu_nhuan\map.net.xml"/>
    </input>

    <output>
        <output-file value="D:\GIAHAN\CN2304CLCA\Giao_Thong_Thong_Minh\HELLOSUMO\2.1phu_nhuan\map.net.xml"/>
    </output>

    <processing>
        <geometry.min-radius.fix.railways value="false"/>
        <geometry.avoid-overlap value="false"/>
        <geometry.max-grade.fix value="false"/>
        <offset.disable-normalization value="true"/>
        <lefthand value="0"/>
    </processing>

    <junctions>
        <no-turnarounds value="true"/>
        <junctions.corner-detail value="5"/>
        <junctions.limit-turn-speed value="5.50"/>
        <rectangular-lane-cut value="0"/>
    </junctions>

    <pedestrian>
        <walkingareas value="0"/>
    </pedestrian>

</neteditConfiguration>
-->

<net version="1.20" junctionCornerDetail="5" limitTurnSpeed="5.50" avoidOverlap="0" xmlns:xsi="http://www.w3.org/2001/XMLSchema-instance" xsi:noNamespaceSchemaLocation="http://sumo.dlr.de/xsd/net_file.xsd">

    <location netOffset="-683404.55,-1194059.28" convBoundary="5.63,147.35,760.49,1079.28" origBoundary="106.677511,10.797188,106.684482,10.806955" projParameter="+proj=utm +zone=48 +ellps=WGS84 +datum=WGS84 +units=m +no_defs"/>

    <type id="highway.primary" priority="12" numLanes="2" speed="27.78" disallow="tram rail_urban rail rail_electric rail_fast ship container cable_car subway aircraft wheelchair scooter drone" oneway="0"/>
    <type id="highway.primary_link" priority="7" numLanes="1" speed="22.22" disallow="tram rail_urban rail rail_electric rail_fast ship container cable_car subway aircraft wheelchair scooter drone" oneway="0"/>

    <edge id=":11217228397_0" function="internal">
        <lane id=":11217228397_0_0" index="0" disallow="tram rail_urban rail rail_electric rail_fast ship container cable_car subway aircraft wheelchair scooter drone" speed="27.78" length="0.10" shape="241.72,376.24 241.76,376.15"/>
        <lane id=":11217228397_0_1" index="1" disallow="tram rail_urban rail rail_electric rail_fast ship container cable_car subway aircraft wheelchair scooter drone" speed="27.78" length="0.10" shape="238.80,374.94 238.76,375.03"/>
    </edge>
    <edge id=":11383749789_0" function="internal">
        <lane id=":11383749789_0_0" index="0" disallow="tram rail_urban rail rail_electric rail_fast ship container cable_car subway aircraft wheelchair scooter drone" speed="27.78" length="0.30" shape="243.75,371.01 243.65,371.30"/>
        <lane id=":11383749789_0_1" index="1" disallow="tram rail_urban rail rail_electric rail_fast ship container cable_car subway aircraft wheelchair scooter drone" speed="27.78" length="0.30" shape="240.73,369.95 240.63,370.23"/>
    </edge>
    <edge id=":1390350846_0" function="internal">
        <lane id=":1390350846_0_0" index="0" disallow="tram rail_urban rail rail_electric rail_fast ship container cable_car subway aircraft wheelchair scooter drone" speed="27.78" length="0.30" shape="88.17,225.31 88.47,225.29"/>
        <lane id=":1390350846_0_1" index="1" disallow="tram rail_urban rail rail_electric rail_fast ship container cable_car subway aircraft wheelchair scooter drone" speed="27.78" length="0.30" shape="88.43,228.50 88.73,228.48"/>
        <lane id=":1390350846_0_2" index="2" disallow="tram rail_urban rail rail_electric rail_fast ship container cable_car subway aircraft wheelchair scooter drone" speed="27.78" length="0.30" shape="88.69,231.69 88.99,231.67"/>
    </edge>
    <edge id=":2293477511_0" function="internal">
        <lane id=":2293477511_0_0" index="0" disallow="tram rail_urban rail rail_electric rail_fast ship container cable_car subway aircraft wheelchair scooter drone" speed="13.12" length="1.71" shape="283.37,210.94 284.22,210.95 284.80,211.00 285.36,211.15 286.16,211.44"/>
        <lane id=":2293477511_0_1" index="1" disallow="tram rail_urban rail rail_electric rail_fast ship container cable_car subway aircraft wheelchair scooter drone" speed="10.25" length="1.71" shape="283.38,214.14 283.88,214.15 284.23,214.18 284.57,214.27 285.05,214.44"/>
        <lane id=":2293477511_0_2" index="2" disallow="tram rail_urban rail rail_electric rail_fast ship container cable_car subway aircraft wheelchair scooter drone" speed="27.78" length="1.71" shape="283.38,217.34 283.55,217.34 283.67,217.35 283.78,217.38 283.94,217.44"/>
    </edge>
    <edge id=":2293477514_0" function="internal">
        <lane id=":2293477514_0_0" index="0" disallow="tram rail_urban rail rail_electric rail_fast ship container cable_car subway aircraft wheelchair scooter drone" speed="27.78" length="0.29" shape="104.62,240.62 104.37,240.64"/>
        <lane id=":2293477514_0_1" index="1" disallow="tram rail_urban rail rail_electric rail_fast ship container cable_car subway aircraft wheelchair scooter drone" speed="27.78" length="0.29" shape="104.40,237.43 104.12,237.45"/>
        <lane id=":2293477514_0_2" index="2" disallow="tram rail_urban rail rail_electric rail_fast ship container cable_car subway aircraft wheelchair scooter drone" speed="27.78" length="0.29" shape="104.19,234.24 103.86,234.26"/>
    </edge>
    <edge id=":2351177727_0" function="internal">
        <lane id=":2351177727_0_0" index="0" disallow="tram rail_urban rail rail_electric rail_fast ship container cable_car subway aircraft wheelchair scooter drone" speed="27.78" length="0.35" shape="420.05,324.55 420.22,324.72"/>
        <lane id=":2351177727_0_1" index="1" disallow="tram rail_urban rail rail_electric rail_fast ship container cable_car subway aircraft wheelchair scooter drone" speed="27.78" length="0.35" shape="417.75,326.77 418.00,327.02"/>
        <lane id=":2351177727_0_2" index="2" disallow="tram rail_urban rail rail_electric rail_fast ship container cable_car subway aircraft wheelchair scooter drone" speed="27.78" length="0.35" shape="415.45,329.00 415.77,329.32"/>
    </edge>
    <edge id=":2351177730_0" function="internal">
        <lane id=":2351177730_0_0" index="0" disallow="tram rail_urban rail rail_electric rail_fast ship container cable_car subway aircraft wheelchair scooter drone" speed="27.78" length="0.30" shape="604.69,504.61 604.92,504.84"/>
        <lane id=":2351177730_0_1" index="1" disallow="tram rail_urban rail rail_electric rail_fast ship container cable_car subway aircraft wheelchair scooter drone" speed="27.78" length="0.30" shape="602.45,506.90 602.66,507.10"/>
        <lane id=":2351177730_0_2" index="2" disallow="tram rail_urban rail rail_electric rail_fast ship container cable_car subway aircraft wheelchair scooter drone" speed="27.78" length="0.30" shape="600.21,509.18 600.41,509.37"/>
    </edge>
    <edge id=":366473119_0" function="internal">
        <lane id=":366473119_0_0" index="0" disallow="tram rail_urban rail rail_electric rail_fast ship container cable_car subway aircraft wheelchair scooter drone" speed="27.78" length="0.28" shape="594.65,515.35 594.50,515.20"/>
        <lane id=":366473119_0_1" index="1" disallow="tram rail_urban rail rail_electric rail_fast ship container cable_car subway aircraft wheelchair scooter drone" speed="27.78" length="0.28" shape="596.94,513.11 596.74,512.91"/>
        <lane id=":366473119_0_2" index="2" disallow="tram rail_urban rail rail_electric rail_fast ship container cable_car subway aircraft wheelchair scooter drone" speed="27.78" length="0.28" shape="599.22,510.87 598.98,510.62"/>
    </edge>
    <edge id=":3700550788_0" function="internal">
        <lane id=":3700550788_0_0" index="0" disallow="tram rail_urban rail rail_electric rail_fast ship container cable_car subway aircraft wheelchair scooter drone" speed="6.32" length="9.04" shape="304.20,237.73 301.80,236.98 299.81,237.22 298.21,238.44 297.01,240.64"/>
    </edge>
    <edge id=":3700550788_1" function="internal">
        <lane id=":3700550788_1_0" index="0" disallow="tram rail_urban rail rail_electric rail_fast ship container cable_car subway aircraft wheelchair scooter drone" speed="27.78" length="15.18" shape="304.20,237.73 300.27,235.87 297.53,234.70 294.71,233.73 290.54,232.49"/>
        <lane id=":3700550788_1_1" index="1" disallow="tram rail_urban rail rail_electric rail_fast ship container cable_car subway aircraft wheelchair scooter drone" speed="27.78" length="15.18" shape="305.58,234.85 301.51,232.92 298.68,231.70 295.76,230.70 291.44,229.41"/>
        <lane id=":3700550788_1_2" index="2" disallow="tram rail_urban rail rail_electric rail_fast ship container cable_car subway aircraft wheelchair scooter drone" speed="27.78" length="15.18" shape="306.97,231.96 302.76,229.97 299.82,228.71 296.81,227.68 292.34,226.34"/>
    </edge>
    <edge id=":3700550788_4" function="internal">
        <lane id=":3700550788_4_0" index="0" disallow="tram rail_urban rail rail_electric rail_fast ship container cable_car subway aircraft wheelchair scooter drone" speed="6.92" length="10.09" shape="306.97,231.96 303.33,230.07 300.86,228.44 299.55,227.06 299.40,225.94"/>
    </edge>
    <edge id=":3700550788_5" function="internal">
        <lane id=":3700550788_5_0" index="0" disallow="tram rail_urban rail rail_electric rail_fast ship container cable_car subway aircraft wheelchair scooter drone" speed="25.00" length="14.68" shape="302.33,227.24 297.01,240.64"/>
        <lane id=":3700550788_5_1" index="1" disallow="tram rail_urban rail rail_electric rail_fast ship container cable_car subway aircraft wheelchair scooter drone" speed="25.00" length="14.68" shape="302.33,227.24 300.54,230.11 298.38,232.49 296.11,235.32 294.01,239.53"/>
    </edge>
    <edge id=":3700550788_7" function="internal">
        <lane id=":3700550788_7_0" index="0" disallow="tram rail_urban rail rail_electric rail_fast ship container cable_car subway aircraft wheelchair scooter drone" speed="7.81" length="12.13" shape="302.33,227.24 300.86,229.16 298.56,230.16 295.42,230.25 291.44,229.41"/>
        <lane id=":3700550788_7_1" index="1" disallow="tram rail_urban rail rail_electric rail_fast ship container cable_car subway aircraft wheelchair scooter drone" speed="7.26" length="10.35" shape="302.33,227.24 301.40,227.86 299.43,227.92 296.41,227.41 292.34,226.34"/>
    </edge>
    <edge id=":3700550788_9" function="internal">
        <lane id=":3700550788_9_0" index="0" disallow="tram rail_urban rail rail_electric rail_fast ship container cable_car subway aircraft wheelchair scooter drone" speed="3.65" length="4.67" shape="302.33,227.24 301.11,228.01 300.22,228.05 299.65,227.36 299.40,225.94"/>
    </edge>
    <edge id=":3700550789_0" function="internal">
        <lane id=":3700550789_0_0" index="0" disallow="tram rail_urban rail rail_electric rail_fast ship container cable_car subway aircraft wheelchair scooter drone" speed="27.78" length="1.05" shape="317.64,244.21 317.56,244.15 317.50,244.11 317.44,244.07 317.34,244.03"/>
        <lane id=":3700550789_0_1" index="1" disallow="tram rail_urban rail rail_electric rail_fast ship container cable_car subway aircraft wheelchair scooter drone" speed="27.78" length="1.05" shape="319.61,241.70 319.37,241.50 319.19,241.38 319.00,241.28 318.72,241.14"/>
        <lane id=":3700550789_0_2" index="2" disallow="tram rail_urban rail rail_electric rail_fast ship container cable_car subway aircraft wheelchair scooter drone" speed="27.78" length="1.05" shape="321.59,239.18 321.18,238.86 320.89,238.66 320.57,238.48 320.11,238.26"/>
    </edge>
    <edge id=":5721608403_0" function="internal">
        <lane id=":5721608403_0_0" index="0" disallow="tram rail_urban rail rail_electric rail_fast ship container cable_car subway aircraft wheelchair scooter drone" speed="27.78" length="0.10" shape="452.53,376.59 452.53,376.59"/>
        <lane id=":5721608403_0_1" index="1" disallow="tram rail_urban rail rail_electric rail_fast ship container cable_car subway aircraft wheelchair scooter drone" speed="27.78" length="0.10" shape="454.77,374.30 454.77,374.30"/>
        <lane id=":5721608403_0_2" index="2" disallow="tram rail_urban rail rail_electric rail_fast ship container cable_car subway aircraft wheelchair scooter drone" speed="27.78" length="0.10" shape="457.01,372.01 457.01,372.01"/>
    </edge>
    <edge id=":5724654558_0" function="internal">
        <lane id=":5724654558_0_0" index="0" disallow="tram rail_urban rail rail_electric rail_fast ship container cable_car subway aircraft wheelchair scooter drone" speed="3.65" length="4.67" shape="335.34,146.69 336.57,145.93 337.46,145.89 338.02,146.59 338.26,148.01"/>
    </edge>
    <edge id=":5724654561_0" function="internal">
        <lane id=":5724654561_0_0" index="0" disallow="tram rail_urban rail rail_electric rail_fast ship container cable_car subway aircraft wheelchair scooter drone" speed="27.78" length="0.12" shape="311.25,215.14 311.30,215.03"/>
        <lane id=":5724654561_0_1" index="1" disallow="tram rail_urban rail rail_electric rail_fast ship container cable_car subway aircraft wheelchair scooter drone" speed="27.78" length="0.12" shape="308.34,213.82 308.39,213.71"/>
    </edge>
    <edge id=":5724654561_2" function="internal">
        <lane id=":5724654561_2_0" index="0" disallow="tram rail_urban rail rail_electric rail_fast ship container cable_car subway aircraft wheelchair scooter drone" speed="27.78" length="0.11" shape="302.56,211.07 302.51,211.17"/>
        <lane id=":5724654561_2_1" index="1" disallow="tram rail_urban rail rail_electric rail_fast ship container cable_car subway aircraft wheelchair scooter drone" speed="27.78" length="0.11" shape="305.47,212.39 305.43,212.49"/>
    </edge>
    <edge id=":5724654562_0" function="internal">
        <lane id=":5724654562_0_0" index="0" disallow="tram rail_urban rail rail_electric rail_fast ship container cable_car subway aircraft wheelchair scooter drone" speed="6.29" length="8.71" shape="311.22,215.21 310.60,217.44 310.92,219.33 312.16,220.87 314.34,222.08"/>
    </edge>
    <edge id=":5724654562_1" function="internal">
        <lane id=":5724654562_1_0" index="0" disallow="tram rail_urban rail rail_electric rail_fast ship container cable_car subway aircraft wheelchair scooter drone" speed="25.00" length="14.84" shape="311.22,215.21 308.84,219.25 306.43,221.94 304.21,224.22 302.41,227.05"/>
    </edge>
    <edge id=":5724654562_2" function="internal">
        <lane id=":5724654562_2_0" index="0" disallow="tram rail_urban rail rail_electric rail_fast ship container cable_car subway aircraft wheelchair scooter drone" speed="3.65" length="2.34" shape="308.31,213.89 307.08,214.65 306.19,214.69"/>
    </edge>
    <edge id=":5724654562_12" function="internal">
        <lane id=":5724654562_12_0" index="0" disallow="tram rail_urban rail rail_electric rail_fast ship container cable_car subway aircraft wheelchair scooter drone" speed="3.65" length="2.34" shape="306.19,214.69 305.62,213.99 305.39,212.57"/>
    </edge>
    <edge id=":5724654562_3" function="internal">
        <lane id=":5724654562_3_0" index="0" disallow="tram rail_urban rail rail_electric rail_fast ship container cable_car subway aircraft wheelchair scooter drone" speed="6.77" length="9.33" shape="294.91,214.68 297.31,215.18 299.38,214.78 301.10,213.47 302.47,211.25"/>
    </edge>
    <edge id=":5724654562_4" function="internal">
        <lane id=":5724654562_4_0" index="0" disallow="tram rail_urban rail rail_electric rail_fast ship container cable_car subway aircraft wheelchair scooter drone" speed="27.78" length="20.74" shape="294.91,214.68 314.34,222.08"/>
        <lane id=":5724654562_4_1" index="1" disallow="tram rail_urban rail rail_electric rail_fast ship container cable_car subway aircraft wheelchair scooter drone" speed="27.78" length="20.74" shape="293.80,217.68 313.18,225.06"/>
        <lane id=":5724654562_4_2" index="2" disallow="tram rail_urban rail rail_electric rail_fast ship container cable_car subway aircraft wheelchair scooter drone" speed="27.78" length="20.74" shape="292.69,220.68 312.02,228.04"/>
    </edge>
    <edge id=":5724654562_7" function="internal">
        <lane id=":5724654562_7_0" index="0" disallow="tram rail_urban rail rail_electric rail_fast ship container cable_car subway aircraft wheelchair scooter drone" speed="7.30" length="12.17" shape="292.69,220.68 297.33,222.58 300.50,224.27 302.19,225.76 302.41,227.05"/>
    </edge>
    <edge id=":5724654562_8" function="internal">
        <lane id=":5724654562_8_0" index="0" disallow="tram rail_urban rail rail_electric rail_fast ship container cable_car subway aircraft wheelchair scooter drone" speed="25.00" length="14.68" shape="299.48,225.76 300.37,222.51 300.59,219.32 301.00,215.72 302.47,211.25"/>
        <lane id=":5724654562_8_1" index="1" disallow="tram rail_urban rail rail_electric rail_fast ship container cable_car subway aircraft wheelchair scooter drone" speed="25.00" length="14.68" shape="299.48,225.76 305.39,212.57"/>
    </edge>
    <edge id=":5724654562_10" function="internal">
        <lane id=":5724654562_10_0" index="0" disallow="tram rail_urban rail rail_electric rail_fast ship container cable_car subway aircraft wheelchair scooter drone" speed="7.85" length="13.18" shape="299.48,225.76 300.63,225.07 303.11,225.21 306.90,226.21 312.02,228.04"/>
    </edge>
    <edge id=":5724654562_11" function="internal">
        <lane id=":5724654562_11_0" index="0" disallow="tram rail_urban rail rail_electric rail_fast ship container cable_car subway aircraft wheelchair scooter drone" speed="3.65" length="4.67" shape="299.48,225.76 300.70,224.99 301.59,224.94 302.16,225.63 302.41,227.05"/>
    </edge>
    <edge id=":5763141607_0" function="internal">
        <lane id=":5763141607_0_0" index="0" disallow="tram rail_urban rail rail_electric rail_fast ship container cable_car subway aircraft wheelchair scooter drone" speed="27.78" length="0.30" shape="256.22,340.98 256.09,341.26"/>
        <lane id=":5763141607_0_1" index="1" disallow="tram rail_urban rail rail_electric rail_fast ship container cable_car subway aircraft wheelchair scooter drone" speed="27.78" length="0.30" shape="253.31,339.65 253.19,339.91"/>
    </edge>
    <edge id=":5763141608_0" function="internal">
        <lane id=":5763141608_0_0" index="0" disallow="tram rail_urban rail rail_electric rail_fast ship container cable_car subway aircraft wheelchair scooter drone" speed="27.78" length="0.10" shape="232.56,400.63 232.52,400.70"/>
        <lane id=":5763141608_0_1" index="1" disallow="tram rail_urban rail rail_electric rail_fast ship container cable_car subway aircraft wheelchair scooter drone" speed="27.78" length="0.10" shape="229.56,399.49 229.60,399.42"/>
    </edge>
    <edge id=":6332498391_0" function="internal">
        <lane id=":6332498391_0_0" index="0" disallow="tram rail_urban rail rail_electric rail_fast ship container cable_car subway aircraft wheelchair scooter drone" speed="27.78" length="0.30" shape="390.31,315.61 390.10,315.39"/>
        <lane id=":6332498391_0_1" index="1" disallow="tram rail_urban rail rail_electric rail_fast ship container cable_car subway aircraft wheelchair scooter drone" speed="27.78" length="0.30" shape="392.57,313.34 392.35,313.12"/>
        <lane id=":6332498391_0_2" index="2" disallow="tram rail_urban rail rail_electric rail_fast ship container cable_car subway aircraft wheelchair scooter drone" speed="27.78" length="0.30" shape="394.82,311.06 394.61,310.86"/>
    </edge>
    <edge id=":6332498403_0" function="internal">
        <lane id=":6332498403_0_0" index="0" disallow="tram rail_urban rail rail_electric rail_fast ship container cable_car subway aircraft wheelchair scooter drone" speed="27.78" length="0.30" shape="412.57,337.57 412.36,337.37"/>
        <lane id=":6332498403_0_1" index="1" disallow="tram rail_urban rail rail_electric rail_fast ship container cable_car subway aircraft wheelchair scooter drone" speed="27.78" length="0.30" shape="414.81,335.28 414.59,335.08"/>
        <lane id=":6332498403_0_2" index="2" disallow="tram rail_urban rail rail_electric rail_fast ship container cable_car subway aircraft wheelchair scooter drone" speed="27.78" length="0.30" shape="417.04,332.99 416.83,332.78"/>
    </edge>
    <edge id=":6332498408_0" function="internal">
        <lane id=":6332498408_0_0" index="0" disallow="tram rail_urban rail rail_electric rail_fast ship container cable_car subway aircraft wheelchair scooter drone" speed="27.78" length="0.30" shape="431.69,356.23 431.48,356.03"/>
        <lane id=":6332498408_0_1" index="1" disallow="tram rail_urban rail rail_electric rail_fast ship container cable_car subway aircraft wheelchair scooter drone" speed="27.78" length="0.30" shape="433.93,353.94 433.71,353.74"/>
        <lane id=":6332498408_0_2" index="2" disallow="tram rail_urban rail rail_electric rail_fast ship container cable_car subway aircraft wheelchair scooter drone" speed="27.78" length="0.30" shape="436.16,351.66 435.95,351.45"/>
    </edge>
    <edge id=":6332498420_0" function="internal">
        <lane id=":6332498420_0_0" index="0" disallow="tram rail_urban rail rail_electric rail_fast ship container cable_car subway aircraft wheelchair scooter drone" speed="27.78" length="0.10" shape="442.29,366.59 442.29,366.59"/>
        <lane id=":6332498420_0_1" index="1" disallow="tram rail_urban rail rail_electric rail_fast ship container cable_car subway aircraft wheelchair scooter drone" speed="27.78" length="0.10" shape="444.53,364.30 444.53,364.30"/>
        <lane id=":6332498420_0_2" index="2" disallow="tram rail_urban rail rail_electric rail_fast ship container cable_car subway aircraft wheelchair scooter drone" speed="27.78" length="0.10" shape="446.77,362.01 446.77,362.01"/>
    </edge>
    <edge id=":6332498996_0" function="internal">
        <lane id=":6332498996_0_0" index="0" disallow="tram rail_urban rail rail_electric rail_fast ship container cable_car subway aircraft wheelchair scooter drone" speed="27.78" length="0.30" shape="233.92,397.02 233.81,397.31"/>
        <lane id=":6332498996_0_1" index="1" disallow="tram rail_urban rail rail_electric rail_fast ship container cable_car subway aircraft wheelchair scooter drone" speed="27.78" length="0.30" shape="230.92,395.90 230.82,396.17"/>
    </edge>
    <edge id=":6332499007_0" function="internal">
        <lane id=":6332499007_0_0" index="0" disallow="tram rail_urban rail rail_electric rail_fast ship container cable_car subway aircraft wheelchair scooter drone" speed="27.78" length="0.30" shape="276.04,297.89 275.91,298.16"/>
        <lane id=":6332499007_0_1" index="1" disallow="tram rail_urban rail rail_electric rail_fast ship container cable_car subway aircraft wheelchair scooter drone" speed="27.78" length="0.30" shape="273.13,296.54 273.00,296.82"/>
    </edge>
    <edge id=":6351667289_0" function="internal">
        <lane id=":6351667289_0_0" index="0" disallow="tram rail_urban rail rail_electric rail_fast ship container cable_car subway aircraft wheelchair scooter drone" speed="27.78" length="0.27" shape="154.14,237.30 153.79,237.33"/>
        <lane id=":6351667289_0_1" index="1" disallow="tram rail_urban rail rail_electric rail_fast ship container cable_car subway aircraft wheelchair scooter drone" speed="27.78" length="0.27" shape="153.84,234.12 153.58,234.14"/>
        <lane id=":6351667289_0_2" index="2" disallow="tram rail_urban rail rail_electric rail_fast ship container cable_car subway aircraft wheelchair scooter drone" speed="27.78" length="0.27" shape="153.55,230.93 153.36,230.95"/>
    </edge>
    <edge id=":6659860334_0" function="internal">
        <lane id=":6659860334_0_0" index="0" disallow="tram rail_urban rail rail_electric rail_fast ship container cable_car subway aircraft wheelchair scooter drone" speed="27.78" length="0.30" shape="292.19,253.63 292.09,253.89"/>
        <lane id=":6659860334_0_1" index="1" disallow="tram rail_urban rail rail_electric rail_fast ship container cable_car subway aircraft wheelchair scooter drone" speed="27.78" length="0.30" shape="289.19,252.51 289.08,252.81"/>
    </edge>
    <edge id=":6729387120_0" function="internal">
        <lane id=":6729387120_0_0" index="0" disallow="tram rail_urban rail rail_electric rail_fast ship container cable_car subway aircraft wheelchair scooter drone" speed="27.78" length="0.29" shape="224.54,214.21 224.87,214.19"/>
        <lane id=":6729387120_0_1" index="1" disallow="tram rail_urban rail rail_electric rail_fast ship container cable_car subway aircraft wheelchair scooter drone" speed="27.78" length="0.29" shape="224.80,217.40 225.08,217.38"/>
        <lane id=":6729387120_0_2" index="2" disallow="tram rail_urban rail rail_electric rail_fast ship container cable_car subway aircraft wheelchair scooter drone" speed="27.78" length="0.29" shape="225.06,220.59 225.29,220.57"/>
    </edge>
    <edge id=":6729387129_0" function="internal">
        <lane id=":6729387129_0_0" index="0" disallow="tram rail_urban rail rail_electric rail_fast ship container cable_car subway aircraft wheelchair scooter drone" speed="27.78" length="0.30" shape="270.33,211.23 270.62,211.21"/>
        <lane id=":6729387129_0_1" index="1" disallow="tram rail_urban rail rail_electric rail_fast ship container cable_car subway aircraft wheelchair scooter drone" speed="27.78" length="0.30" shape="270.54,214.42 270.84,214.40"/>
        <lane id=":6729387129_0_2" index="2" disallow="tram rail_urban rail rail_electric rail_fast ship container cable_car subway aircraft wheelchair scooter drone" speed="27.78" length="0.30" shape="270.75,217.61 271.06,217.59"/>
    </edge>
    <edge id=":712140184_0" function="internal">
        <lane id=":712140184_0_0" index="0" disallow="tram rail_urban rail rail_electric rail_fast ship container cable_car subway aircraft wheelchair scooter drone" speed="27.78" length="0.10" shape="110.28,223.51 110.28,223.51"/>
        <lane id=":712140184_0_1" index="1" disallow="tram rail_urban rail rail_electric rail_fast ship container cable_car subway aircraft wheelchair scooter drone" speed="27.78" length="0.10" shape="110.54,226.70 110.54,226.70"/>
        <lane id=":712140184_0_2" index="2" disallow="tram rail_urban rail rail_electric rail_fast ship container cable_car subway aircraft wheelchair scooter drone" speed="27.78" length="0.10" shape="110.80,229.89 110.80,229.89"/>
    </edge>
    <edge id=":9239351713_0" function="internal">
        <lane id=":9239351713_0_0" index="0" disallow="tram rail_urban rail rail_electric rail_fast ship container cable_car subway aircraft wheelchair scooter drone" speed="27.78" length="0.30" shape="380.55,283.74 380.76,283.96"/>
        <lane id=":9239351713_0_1" index="1" disallow="tram rail_urban rail rail_electric rail_fast ship container cable_car subway aircraft wheelchair scooter drone" speed="27.78" length="0.30" shape="378.26,285.97 378.46,286.19"/>
        <lane id=":9239351713_0_2" index="2" disallow="tram rail_urban rail rail_electric rail_fast ship container cable_car subway aircraft wheelchair scooter drone" speed="27.78" length="0.30" shape="375.96,288.20 376.16,288.41"/>
    </edge>

    <edge id="-1185183964#0" from="5724654561" to="5724654558" priority="12" type="highway.primary">
        <lane id="-1185183964#0_0" index="0" disallow="tram rail_urban rail rail_electric rail_fast ship container cable_car subway aircraft wheelchair scooter drone" speed="27.78" length="72.29" shape="302.51,211.17 332.43,145.36"/>
        <lane id="-1185183964#0_1" index="1" disallow="tram rail_urban rail rail_electric rail_fast ship container cable_car subway aircraft wheelchair scooter drone" speed="27.78" length="72.29" shape="305.43,212.49 335.34,146.69"/>
    </edge>
    <edge id="-1185183964#1" from="5724654562" to="5724654561" priority="12" type="highway.primary">
        <lane id="-1185183964#1_0" index="0" disallow="tram rail_urban rail rail_electric rail_fast ship container cable_car subway aircraft wheelchair scooter drone" speed="27.78" length="0.20" shape="302.47,211.25 302.56,211.07"/>
        <lane id="-1185183964#1_1" index="1" disallow="tram rail_urban rail rail_electric rail_fast ship container cable_car subway aircraft wheelchair scooter drone" speed="27.78" length="0.20" shape="305.39,212.57 305.47,212.39"/>
    </edge>
    <edge id="-817085858" from="3700550788" to="5724654562" priority="7" type="highway.primary_link">
        <lane id="-817085858_0" index="0" disallow="tram rail_urban rail rail_electric rail_fast ship container cable_car subway aircraft wheelchair scooter drone" speed="22.22" length="0.20" shape="299.40,225.94 299.48,225.76"/>
    </edge>
    <edge id="1184435617#0" from="6729387120" to="6729387129" priority="12" type="highway.primary" spreadType="center" shape="224.94,217.39 250.67,215.71 270.69,214.41">
        <lane id="1184435617#0_0" index="0" disallow="tram rail_urban rail rail_electric rail_fast ship container cable_car subway aircraft wheelchair scooter drone" speed="27.78" length="45.55" shape="224.87,214.19 250.46,212.52 270.33,211.23"/>
        <lane id="1184435617#0_1" index="1" disallow="tram rail_urban rail rail_electric rail_fast ship container cable_car subway aircraft wheelchair scooter drone" speed="27.78" length="45.55" shape="225.08,217.38 250.67,215.71 270.54,214.42"/>
        <lane id="1184435617#0_2" index="2" disallow="tram rail_urban rail rail_electric rail_fast ship container cable_car subway aircraft wheelchair scooter drone" speed="27.78" length="45.55" shape="225.29,220.57 250.88,218.90 270.75,217.61"/>
    </edge>
    <edge id="1184435617#1" from="6729387129" to="2293477511" priority="12" type="highway.primary" spreadType="center" shape="270.69,214.41 274.52,214.15 284.24,214.14">