<routes>
<vType id="car_red" type="car" color="1,0,0"/>
<vType id="car_yellow" type="car" color="1,1,0"/>
<vType id="car_green" type="car" color="0,1,0"/>

</routes>
