<?xml version="1.0" encoding="UTF-8"?>

<!-- generated on 2025-08-11 14:11:06 by Eclipse SUMO netedit Version 1.24.0
<neteditConfiguration xmlns:xsi="http://www.w3.org/2001/XMLSchema-instance" xsi:noNamespaceSchemaLocation="http://sumo.dlr.de/xsd/neteditConfiguration.xsd">

    <input>
        <sumocfg-file value="D:\GIAHAN\CN2304CLCA\Giao_Thong_Thong_Minh\HELLOSUMO\Driving_in_Circles\circles.sumocfg"/>
        <sumo-net-file value="D:\GIAHAN\CN2304CLCA\Giao_Thong_Thong_Minh\HELLOSUMO\Driving_in_Circles\circles.net.xml"/>
    </input>

    <output>
        <output-file value="D:\GIAHAN\CN2304CLCA\Giao_Thong_Thong_Minh\HELLOSUMO\Driving_in_Circles\circles.net.xml"/>
    </output>

    <processing>
        <offset.disable-normalization value="true"/>
    </processing>

    <junctions>
        <no-turnarounds value="true"/>
    </junctions>

    <netedit>
        <new-network value="false"/>
    </netedit>

</neteditConfiguration>
-->

<net version="1.20" junctionCornerDetail="5" limitTurnSpeed="5.50" xmlns:xsi="http://www.w3.org/2001/XMLSchema-instance" xsi:noNamespaceSchemaLocation="http://sumo.dlr.de/xsd/net_file.xsd">

    <location netOffset="0.00,0.00" convBoundary="-40.65,-44.44,42.14,26.90" origBoundary="10000000000.00,10000000000.00,-10000000000.00,-10000000000.00" projParameter="!"/>

    <edge id=":J0_0" function="internal">
        <lane id=":J0_0_0" index="0" speed="4.27" length="1.21" shape="-0.57,24.91 -0.24,25.06 0.00,25.12 0.25,25.10 0.59,25.00"/>
    </edge>
    <edge id=":J1_0" function="internal">
        <lane id=":J1_0_0" index="0" speed="4.36" length="1.09" shape="23.87,17.90 24.17,17.80 24.37,17.70 24.53,17.54 24.72,17.28"/>
    </edge>
    <edge id=":J2_0" function="internal">
        <lane id=":J2_0_0" index="0" speed="4.02" length="1.68" shape="39.77,-4.66 39.98,-5.05 40.07,-5.44 40.04,-5.85 39.90,-6.26"/>
    </edge>
    <edge id=":J3_0" function="internal">
        <lane id=":J3_0_0" index="0" speed="4.17" length="1.29" shape="27.88,-31.27 27.71,-31.55 27.49,-31.79 27.23,-31.97 26.93,-32.10"/>
    </edge>
    <edge id=":J4_0" function="internal">
        <lane id=":J4_0_0" index="0" speed="4.09" length="1.46" shape="-4.83,-42.44 -5.20,-42.52 -5.55,-42.51 -5.90,-42.42 -6.23,-42.24"/>
    </edge>
    <edge id=":J5_0" function="internal">
        <lane id=":J5_0_0" index="0" speed="4.01" length="1.70" shape="-38.20,-20.59 -38.53,-20.31 -38.76,-19.97 -38.88,-19.58 -38.90,-19.13"/>
    </edge>
    <edge id=":J6_0" function="internal">
        <lane id=":J6_0_0" index="0" speed="4.02" length="1.66" shape="-36.70,6.65 -36.62,7.07 -36.44,7.43 -36.17,7.72 -35.80,7.95"/>
    </edge>

    <edge id="E0" from="J0" to="J1" priority="-1">
        <lane id="E0_0" index="0" speed="13.89" length="24.33" shape="0.59,25.00 23.87,17.90"/>
    </edge>
    <edge id="E1" from="J1" to="J2" priority="-1">
        <lane id="E1_0" index="0" speed="13.89" length="26.61" shape="24.72,17.28 39.77,-4.66"/>
    </edge>
    <edge id="E2" from="J2" to="J3" priority="-1">
        <lane id="E2_0" index="0" speed="13.89" length="27.75" shape="39.90,-6.26 27.88,-31.27"/>
    </edge>
    <edge id="E3" from="J3" to="J4" priority="-1">
        <lane id="E3_0" index="0" speed="13.89" length="33.40" shape="26.93,-32.10 -4.83,-42.44"/>
    </edge>
    <edge id="E4" from="J4" to="J5" priority="-1">
        <lane id="E4_0" index="0" speed="13.89" length="38.61" shape="-6.23,-42.24 -38.20,-20.59"/>
    </edge>
    <edge id="E5" from="J5" to="J6" priority="-1">
        <lane id="E5_0" index="0" speed="13.89" length="25.88" shape="-38.90,-19.13 -36.70,6.65"/>
    </edge>
    <edge id="E6" from="J6" to="J0" priority="-1">
        <lane id="E6_0" index="0" speed="13.89" length="39.10" shape="-35.80,7.95 -0.57,24.91"/>
    </edge>

    <junction id="J0" type="priority" x="-0.14" y="26.90" incLanes="E6_0" intLanes=":J0_0_0" shape="1.06,26.53 0.13,23.47 -1.26,26.36 -0.44,26.70 -0.13,26.76 0.20,26.75 0.57,26.67">
        <request index="0" response="0" foes="0" cont="0"/>
    </junction>
    <junction id="J1" type="priority" x="25.41" y="19.11" incLanes="E0_0" intLanes=":J1_0_0" shape="26.04,18.18 23.40,16.37 24.34,19.43 25.09,19.16 25.34,19.02 25.56,18.83 25.78,18.56">
        <request index="0" response="0" foes="0" cont="0"/>
    </junction>
    <junction id="J2" type="priority" x="42.14" y="-5.28" incLanes="E1_0" intLanes=":J2_0_0" shape="41.34,-6.95 38.45,-5.57 41.09,-3.76 41.59,-4.79 41.68,-5.32 41.67,-5.86 41.55,-6.40">
        <request index="0" response="0" foes="0" cont="0"/>
    </junction>
    <junction id="J3" type="priority" x="28.73" y="-33.20" incLanes="E2_0" intLanes=":J3_0_0" shape="26.43,-30.58 29.32,-31.96 28.85,-32.70 28.55,-33.00 28.21,-33.25 27.84,-33.46 27.43,-33.62">
        <request index="0" response="0" foes="0" cont="0"/>
    </junction>
    <junction id="J4" type="priority" x="-5.83" y="-44.44" incLanes="E3_0" intLanes=":J4_0_0" shape="-5.33,-40.92 -4.34,-43.96 -5.31,-44.13 -5.78,-44.10 -6.24,-44.00 -6.69,-43.82 -7.12,-43.57">
        <request index="0" response="0" foes="0" cont="0"/>
    </junction>
    <junction id="J5" type="priority" x="-40.65" y="-20.87" incLanes="E4_0" intLanes=":J5_0_0" shape="-40.49,-19.00 -37.30,-19.27 -39.10,-21.92 -39.94,-21.13 -40.22,-20.66 -40.41,-20.15 -40.50,-19.60">
        <request index="0" response="0" foes="0" cont="0"/>
    </junction>
    <junction id="J6" type="priority" x="-38.14" y="8.60" incLanes="E5_0" intLanes=":J6_0_0" shape="-36.50,9.40 -35.11,6.51 -38.30,6.78 -38.03,7.88 -37.77,8.35 -37.43,8.75 -37.00,9.10">
        <request index="0" response="0" foes="0" cont="0"/>
    </junction>

    <connection from="E0" to="E1" fromLane="0" toLane="0" via=":J1_0_0" dir="s" state="M"/>
    <connection from="E1" to="E2" fromLane="0" toLane="0" via=":J2_0_0" dir="r" state="M"/>
    <connection from="E2" to="E3" fromLane="0" toLane="0" via=":J3_0_0" dir="r" state="M"/>
    <connection from="E3" to="E4" fromLane="0" toLane="0" via=":J4_0_0" dir="r" state="M"/>
    <connection from="E4" to="E5" fromLane="0" toLane="0" via=":J5_0_0" dir="r" state="M"/>
    <connection from="E5" to="E6" fromLane="0" toLane="0" via=":J6_0_0" dir="r" state="M"/>
    <connection from="E6" to="E0" fromLane="0" toLane="0" via=":J0_0_0" dir="s" state="M"/>

    <connection from=":J0_0" to="E0" fromLane="0" toLane="0" dir="s" state="M"/>
    <connection from=":J1_0" to="E1" fromLane="0" toLane="0" dir="s" state="M"/>
    <connection from=":J2_0" to="E2" fromLane="0" toLane="0" dir="r" state="M"/>
    <connection from=":J3_0" to="E3" fromLane="0" toLane="0" dir="r" state="M"/>
    <connection from=":J4_0" to="E4" fromLane="0" toLane="0" dir="r" state="M"/>
    <connection from=":J5_0" to="E5" fromLane="0" toLane="0" dir="r" state="M"/>
    <connection from=":J6_0" to="E6" fromLane="0" toLane="0" dir="r" state="M"/>

</net>
